/*--------------------------------*- C++ -*----------------------------------*\
| =========                 | OpenFOAM: The Open Source CFD Toolbox           |
\*---------------------------------------------------------------------------*/

FoamFile
{
    version     2.0;
    format      ascii;
    class       dictionary;
    location    "constant";
    object      fvOptions;
}
// * * * * * * * * * * * * * * * * * * * * * * * * * * * * * * * * * * * * * //

actuatorDisk
{
    type            meanVelocityForce;
    active          yes;

    meanVelocityForceCoeffs
    {
        Ubar            (-1.75        3.03108891 0);
        relaxation      1;
        selectionMode   cellZone;
        cellZone        actuatorDiskZone;
        fields          (U);
        relaxation      0.9;
    }

}
