/*--------------------------------*- C++ -*----------------------------------*\
| =========                 |                                                 |
| \      /  F ield         | OpenFOAM: The Open Source CFD Toolbox           |
|  \    /   O peration     | Version:  2412                                  |
|   \  /    A nd           | Website:  www.openfoam.com                      |
|    \/     M anipulation  |                                                 |
\*---------------------------------------------------------------------------*/

FoamFile
{
    version     2.0;
    format      ascii;
    class       dictionary;
    location    "system";
    object      controlDict;
}
// * * * * * * * * * * * * * * * * * * * * * * * * * * * * * * * * * * * * * //

application     simpleFoam;
startFrom       startTime;
startTime       0;
stopAt          endTime;
endTime         1000;
deltaT          1;
writeControl    timeStep;
writeInterval   10;
purgeWrite      0;
writeFormat     ascii;
writePrecision  6;
writeCompression uncompressed;
timeFormat      general;
timePrecision   6;
runTimeModifiable yes;

functions
{
    forces
    {
        type forces;
        functionObjectLibs ("libforces.so");
        patches (deflector);
        rho rhoInf;
        rhoInf 1.225;
        CofR (0 0 0);
    }
    writeZones
    {
        type            writeCellZones;
        libs            ("libutilityFunctionObjects.so");
        writeControl    timeStep;
        writeInterval   1;
    }
}
