/*--------------------------------*- C++ -*----------------------------------*\
| =========                 |                                                 |
| \      /  F ield         | OpenFOAM: The Open Source CFD Toolbox           |
|  \    /   O peration     | Version:  2412                                  |
|   \  /    A nd           | Website:  www.openfoam.com                      |
|    \/     M anipulation  |                                                 |
\*---------------------------------------------------------------------------*/

FoamFile
{
    version     2.0;
    format      ascii;
    class       dictionary;
    location    "system";
    object      controlDict;
}
// * * * * * * * * * * * * * * * * * * * * * * * * * * * * * * * * * * * * * //

application     simpleFoam;
// startFrom       startTime;
startFrom       latestTime;
startTime       0;
stopAt          endTime;
endTime         2000;
deltaT          1;
writeControl    timeStep;
// writeTime       10;
writeFrequency  500;
purgeWrite      0;
writeFormat     ascii;
writePrecision  6;
writeCompression uncompressed;
timeFormat      general;
timePrecision   6;
runTimeModifiable yes;

functions
{
    solverInfo
    {
        type                solverInfo;
        libs                ("libutilityFunctionObjects.so");
        enabled             true;
        writeControl        timeStep;
        writeInterval       1;
        log                 true;
        writeResidualFields no;
        fields
        (
            U
            p
            // k, epsilon, etc.
        );
    }
    fieldAverage1
    {
        type             fieldAverage;
        libs             ("libfieldFunctionObjects.so");
        // startTime        500;
        enabled          true;
        log              true;
        writeFields      true;
        restartOnRestart false;
        writeControl     timeStep;
        writeInterval    100;
        fields
        (
            U
            {
                mean        on;
                prime2Mean  off;
                base        time;
            }
            p
            {
                mean        on;
                prime2Mean  off;
                base        time;
            }
        );
    }
    deflectorForce
    {
        type            forces;
        libs            ("libforces.so");
        enabled         true;
        patches         (deflector);
        rho             rhoInf;
        rhoInf          1.225;
        pRef            0.0;
        CofR            (0 0 0);
        log             true;
        writeFields     false;
        writeControl    timeStep;
        writeInterval   1;
    }
    pAbove
    {
        type            volFieldValue;
        libs            ("libfieldFunctionObjects.so");
        operation       average;
        regionType      cellSet;
        name            aboveDiskCells;
        fields          (p);
        log             true;
        writeFields     false;
        writeControl    timeStep;
        writeInterval   1;
    }
    pBelow
    {
        type            volFieldValue;
        libs            ("libfieldFunctionObjects.so");
        operation       average;
        regionType      cellSet;
        name            belowDiskCells;
        fields          (p);
        log             true;
        writeFields     false;
        writeControl    timeStep;
        writeInterval   1;
    }
}

