/*--------------------------------*- C++ -*----------------------------------*\
| =========                 |                                                 |
| \\      /  F ield         | OpenFOAM: The Open Source CFD Toolbox           |
|  \\    /   O peration     | Version:  2412                                  |
|   \\  /    A nd           | Website:  www.openfoam.com                      |
|    \\/     M anipulation  |                                                 |
\*---------------------------------------------------------------------------*/

FoamFile
{
    version     2.0;
    format      ascii;
    class       dictionary;
    location    "system";
    object      topoSetDict;
}
// * * * * * * * * * * * * * * * * * * * * * * * * * * * * * * * * * * * * * //

actions
(
    {
        name    actuatorDiskZone;
        type    cellSet;
        action  new;
        source  cylinderToCell;
        sourceInfo
        {
            p1      (0.08280992 0.08697537 0);     // base of the cylinder (adjust as needed)
            p2      (0.09220684 0.08355517 0);     // top of the cylinder (normal axis = y)
            radius  0.1016;
        }
    }
    {
        name    actuatorDiskZone;
        type    cellZoneSet;
        action  new;
        source  setToCellZone;
        sourceInfo
        {
            set actuatorDiskZone;
        }
    }
    {
        name    belowDiskCells;
        type    cellSet;
        action  new;
        source  cylinderToCell;
        sourceInfo
        {
            p1     (0.08187022 0.08731739 0);    // just below
            p2     (0.07811145 0.08868547  0);    // very thin slice
            radius 0.1016;
        }
    }
    {
        name    aboveDiskCells;
        type    cellSet;
        action  new;
        source  cylinderToCell;
        sourceInfo
        {
            p1     (0.09314653 0.08321315 0);    // just above
            p2     (0.0969053  0.08184507 0);    // very thin slice
            radius 0.1016;
        }
    } 
);
