/*--------------------------------*- C++ -*----------------------------------*\
| =========                 |                                                 |
| \\      /  F ield         | OpenFOAM: The Open Source CFD Toolbox           |
|  \\    /   O peration     | Version:  2412                                  |
|   \\  /    A nd           | Website:  www.openfoam.com                      |
|    \\/     M anipulation  |                                                 |
\*---------------------------------------------------------------------------*/

FoamFile
{
    version     2.0;
    format      ascii;
    class       dictionary;
    location    "system";
    object      topoSetDict;
}
// * * * * * * * * * * * * * * * * * * * * * * * * * * * * * * * * * * * * * //

actions
(
    {
        name    actuatorDiskZone;
        type    cellSet;
        action  new;
        source  cylinderToCell;
        sourceInfo
        {
            p1      (0.17122183 -0.0605019 0);     // base of the cylinder (adjust as needed)
            p2      (0.17295832 -0.07034998 0);     // top of the cylinder (normal axis = y)
            radius  0.1016;
        }
    }
    {
        name    actuatorDiskZone;
        type    cellZoneSet;
        action  new;
        source  setToCellZone;
        sourceInfo
        {
            set actuatorDiskZone;
        }
    }
    {
        name    belowDiskCells;
        type    cellSet;
        action  new;
        source  cylinderToCell;
        sourceInfo
        {
            p1     (0.17104819 -0.05951709 0);    // just below
            p2     (0.17070089 -0.05754748 0);     // very thin slice
            radius 0.1016;
        }
    }
    {
        name    aboveDiskCells;
        type    cellSet;
        action  new;
        source  cylinderToCell;
        sourceInfo
        {
            p1     (0.17313196 -0.07133478 0);    // just above
            p2     (0.17347926 -0.0733044 0);    // very thin slice
            radius 0.1016;
        }
    } 
);
