/*--------------------------------*- C++ -*----------------------------------*\
| =========                 |                                                 |
| \\      /  F ield         | OpenFOAM: The Open Source CFD Toolbox           |
|  \\    /   O peration     | Version:  2412                                  |
|   \\  /    A nd           | Website:  www.openfoam.com                      |
|    \\/     M anipulation  |                                                 |
\*---------------------------------------------------------------------------*/

FoamFile
{
    version     2.0;
    format      ascii;
    class       dictionary;
    location    "system";
    object      topoSetDict;
}
// * * * * * * * * * * * * * * * * * * * * * * * * * * * * * * * * * * * * * //

actions
(
    {
        name    actuatorDiskZone;
        type    cellSet;
        action  new;
        source  cylinderToCell;
        sourceInfo
        {
            p1      (0.17244118 -0.03043528 0);     // base of the cylinder (adjust as needed)
            p2      (0.17586138 -0.03983221 0);     // top of the cylinder (normal axis = y)
            radius  0.1016;
        }
    }
    {
        name    actuatorDiskZone;
        type    cellZoneSet;
        action  new;
        source  setToCellZone;
        sourceInfo
        {
            set actuatorDiskZone;
        }
    }
    {
        name    belowDiskCells;
        type    cellSet;
        action  new;
        source  cylinderToCell;
        sourceInfo
        {
            p1     (0.17209916 -0.02949559 0);    // just below
            p2     (0.17141512 -0.0276162 0);     // very thin slice
            radius 0.1016;
        }
    }
    {
        name    aboveDiskCells;
        type    cellSet;
        action  new;
        source  cylinderToCell;
        sourceInfo
        {
            p1     (0.1762034 -0.0407719 0);    // just above
            p2     (0.17688744 -0.04265129 0);    // very thin slice
            radius 0.1016;
        }
    } 
);
