/*--------------------------------*- C++ -*----------------------------------*\
| =========                 |                                                 |
| \\      /  F ield         | OpenFOAM: The Open Source CFD Toolbox           |
|  \\    /   O peration     | Version:  2412                                  |
|   \\  /    A nd           | Website:  www.openfoam.com                      |
|    \\/     M anipulation  |                                                 |
\*---------------------------------------------------------------------------*/

FoamFile
{
    version     2.0;
    format      ascii;
    class       dictionary;
    location    "system";
    object      topoSetDict;
}
// * * * * * * * * * * * * * * * * * * * * * * * * * * * * * * * * * * * * * //

actions
(
    {
        name    actuatorDiskZone;
        type    cellSet;
        action  new;
        source  cylinderToCell;
        sourceInfo
        {
            p1      (0.10466512 0.09878151 0);     // base of the cylinder (adjust as needed)
            p2      (0.11406205 0.09536131 0);     // top of the cylinder (normal axis = y)
            radius  0.1016;
        }
    }
    {
        name    actuatorDiskZone;
        type    cellZoneSet;
        action  new;
        source  setToCellZone;
        sourceInfo
        {
            set actuatorDiskZone;
        }
    }
    {
        name    belowDiskCells;
        type    cellSet;
        action  new;
        source  cylinderToCell;
        sourceInfo
        {
            p1     (0.10372543 0.0991235 0);    // just below
            p2     (0.10184604 0.09980757 0);    // very thin slice
            radius 0.1016;
        }
    }
    {
        name    aboveDiskCells;
        type    cellSet;
        action  new;
        source  cylinderToCell;
        sourceInfo
        {
            p1     (0.11500174 0.09501929 0);    // just above
            p2     (0.11688112 0.09433525 0);    // very thin slice
            radius 0.1016;
        }
    } 
);
