/*--------------------------------*- C++ -*----------------------------------*\
| =========                 |                                                 |
| \\      /  F ield         | OpenFOAM: The Open Source CFD Toolbox           |
|  \\    /   O peration     | Version:  2412                                  |
|   \\  /    A nd           | Website:  www.openfoam.com                      |
|    \\/     M anipulation  |                                                 |
\*---------------------------------------------------------------------------*/

FoamFile
{
    version     2.0;
    format      ascii;
    class       dictionary;
    location    "system";
    object      topoSetDict;
}
// * * * * * * * * * * * * * * * * * * * * * * * * * * * * * * * * * * * * * //

actions
(
    {
        name    actuatorDiskZone;
        type    cellSet;
        action  new;
        source  cylinderToCell;
        sourceInfo
        {
            p1      (0.16842099 -0.00061371 0);     // base of the cylinder (adjust as needed)
            p2      (0.17342099 -0.00927396 0);     // top of the cylinder (normal axis = y)
            radius  0.1016;
        }
    }
    {
        name    actuatorDiskZone;
        type    cellZoneSet;
        action  new;
        source  setToCellZone;
        sourceInfo
        {
            set actuatorDiskZone;
        }
    }
    {
        name    belowDiskCells;
        type    cellSet;
        action  new;
        source  cylinderToCell;
        sourceInfo
        {
            p1     (0.16792099 0.00025232 0);    // just below
            p2     (0.16692099 0.00198437 0);     // very thin slice
            radius 0.1016;
        }
    }
    {
        name    aboveDiskCells;
        type    cellSet;
        action  new;
        source  cylinderToCell;
        sourceInfo
        {
            p1     (0.17392099 -0.01013999 0);    // just above
            p2     (0.17492099 -0.01187204 0);    // very thin slice
            radius 0.1016;
        }
    } 
);
