/*--------------------------------*- C++ -*----------------------------------*\
| =========                 | OpenFOAM: The Open Source CFD Toolbox           |
\*---------------------------------------------------------------------------*/

FoamFile
{
    version     2.0;
    format      ascii;
    class       dictionary;
    location    "constant";
    object      fvOptions;
}

//---------------------------------------------------------------------------//

actuatorThrust
{
    type            vectorSemiImplicitSource;
    active          yes;

    vectorSemiImplicitSourceCoeffs
    {
        // --- which cells to apply the source in
        selectionMode   cellZone;
        cellZone        actuatorDiskZone;

        // --- which field(s) to source
        fields          (U);

        // --- interpret values as acceleration [m/s²]
        volumeMode      absolute;

        // --- linearization coefficients (zero here → fully explicit)
        c1              [0 0 -1 0 0 0 0] 0;
        c2              [0 0 -1 0 0 0 0] 0;

        // --- the explicit (Su) and implicit (Sp) parts of S(x)=Su+Sp·x
        sources
        {
            U
            {
                explicit (-0.5  0.8660254 0);
                implicit 0;
            }
        }
    }
}
​​​​​​​​​