/*--------------------------------*- C++ -*----------------------------------*\
| =========                 | OpenFOAM: The Open Source CFD Toolbox           |
\*---------------------------------------------------------------------------*/

FoamFile
{
    version     2.0;
    format      ascii;
    class       dictionary;
    location    "constant";
    object      fvOptions;
}
// * * * * * * * * * * * * * * * * * * * * * * * * * * * * * * * * * * * * * //

actuatorDisk
{
    type            meanVelocityForce;
    active          yes;

    meanVelocityForceCoeffs
    {
        /* Ubar            (-0.866 0.5 0); */
        Ubar            (-1.732 1.0 0);
        relaxation      1;
        selectionMode   cellZone;
        cellZone        actuatorDiskZone;
        fields          (U);
    }

}
