/*--------------------------------*- C++ -*----------------------------------*\
| =========                 | OpenFOAM: The Open Source CFD Toolbox           |
\*---------------------------------------------------------------------------*/

FoamFile
{
    version     2.0;
    format      ascii;
    class       dictionary;
    location    "constant";
    object      transportProperties;
}

transportModel  Newtonian;

nu              [0 2 -1 0 0 0 0] 1.48e-5;
// rho             [1 -3 0 0 0 0 0] 1.225; // density of air at 15 degrees Celsius