/*--------------------------------*- C++ -*----------------------------------*\
| =========                 |                                                 |
| \      /  F ield         | OpenFOAM: The Open Source CFD Toolbox           |
|  \    /   O peration     | Version:  2412                                  |
\*---------------------------------------------------------------------------*/

FoamFile
{
    version     2.0;
    format      ascii;
    class       volScalarField;
    object      nut;
}
dimensions      [0 2 -1 0 0 0 0];

internalField   uniform 0.028;

boundaryField
{
    sides       { type zeroGradient; }
    outlet      { type zeroGradient; }
    // steady no-slip surface
    deflector   { 
        type nutkWallFunction; 
        value uniform 0.028;
    }
}
